data/projects/4mgs/circuit_plusmg_3.dss
clear
set defaultbasefrequency=60
new object=circuit.lehigh basekv=115 pu=1.0001 phases=3 bus1=sourcebus angle=30 mvasc3=20000 mvasc1=21000
edit object=vsource.source basekv=115 bus1=sourcebus.1.2.3 pu=1.00 r1=0 x1=0.0001 r0=0 x0=0.0001
new object=vsource.secondsource basekv=4.16 bus1=680.1.2.3 pu=1.00 r1=0 x1=0.0001 r0=0 x0=0.0001
new object=transformer.sub phases=3 windings=2 xhl=0.008 buses=[sourcebus.1.2.3,650.1.2.3] conns=[delta,wye] kvs=[115,4.16] kvas=[5000,5000] %rs=[0.0005,0.0005]
new object=transformer.reg1 phases=1 bank=reg1 xhl=0.01 kvas=[1666,1666] buses=[650.1,rg60.1] kvs=[2.4,2.4] %loadloss=0.01
new object=regcontrol.reg1 transformer=reg1 winding=2 vreg=121 band=2 ptratio=20 ctprim=700 r=3 x=9
new object=transformer.reg2 phases=1 bank=reg1 xhl=0.01 kvas=[1666,1666] buses=[650.2,rg60.2] kvs=[2.4,2.4] %loadloss=0.01
new object=regcontrol.reg2 transformer=reg2 winding=2 vreg=121 band=2 ptratio=20 ctprim=700 r=3 x=9
new object=transformer.reg3 phases=1 bank=reg1 xhl=0.01 kvas=[1666,1666] buses=[650.3,rg60.3] kvs=[2.4,2.4] %loadloss=0.01
new object=regcontrol.reg3 transformer=reg3 winding=2 vreg=121 band=2 ptratio=20 ctprim=700 r=3 x=9
new object=transformer.xfm1 phases=3 windings=2 xhl=2 buses=[633.1.2.3,634.1.2.3] conns=[wye,wye] kvs=[4.16,0.480] kvas=[500,500] %rs=[0.55,0.55] xht=1 xlt=1
new object=linecode.mtx601 nphases=3 basefreq=60 rmatrix=[0.3465|0.1560,0.3375|0.1580,0.1535,0.3414] xmatrix=[1.0179|0.5017,1.0478|0.4236,0.3849,1.0348] units=mi
new object=linecode.mtx602 nphases=3 basefreq=60 rmatrix=[0.7526|0.1580,0.7475|0.1560,0.1535,0.7436] xmatrix=[1.1814|0.4236,1.1983|0.5017,0.3849,1.2112] units=mi
new object=linecode.mtx603 nphases=2 basefreq=60 rmatrix=[1.3238|0.2066,1.3294] xmatrix=[1.3569|0.4591,1.3471] units=mi
new object=linecode.mtx604 nphases=2 basefreq=60 rmatrix=[1.3238|0.2066,1.3294] xmatrix=[1.3569|0.4591,1.3471] units=mi
new object=linecode.mtx605 nphases=1 basefreq=60 rmatrix=[1.3292] xmatrix=[1.3475] units=mi
new object=linecode.mtx606 nphases=3 units=mi rmatrix=[0.791721|0.318476,0.781649|0.28345,0.318476,0.791721] xmatrix=[0.438352|0.0276838,0.396697|-0.0184204,0.0276838,0.438352] cmatrix=[383.948|0,383.948|0,0,383.948]
new object=linecode.mtx607 nphases=1 basefreq=60 rmatrix=[1.3425] xmatrix=[0.5124] cmatrix=[236] units=mi
new object=loadshape.solar_634_shape npts=8760 interval=1 useactual=yes mult=[0.0,0.0,0.0,0.0,0.0,0.0,0.0,0.0,2.257517601062839,6.844465662254632,9.661811216806845,29.6899976113974,6.808357517829029,15.910340781146502,23.80254949131376,25.626465929484297,12.804130071189473,0.8486931088941884,0.0,0.0,0.0,0.0,0.0,0.0,0.0,0.0,0.0,0.0,0.0,0.0,0.0,0.0,5.92355626450924,15.043745314932057,21.05742022561276,0.8307907515739319,45.20314880386229,16.163401221910803,58.69363704892328,40.363140301906185,21.31017723659197,1.8239164381705275,0.0,0.0,0.0,0.0,0.0,0.0,0.0,0.0,0.0,0.0,0.0,0.0,0.0,0.0,17.37317577506101,40.5075728796086,53.81752040254159,22.80912037493208,40.56188681113954,40.45325894807765,33.049268762118736,28.696568495015715,15.061647672252311,1.1918721958299503,0.0,0.0,0.0,0.0,0.0,0.0,0.0,0.0,0.0,0.0,0.0,0.0,0.0,0.0,26.43935432373797,60.57186741862475,85.9995868388757,101.8741229053817,107.923905960488,105.07045226151018,92.42896055512844,70.84782052045192,38.61144015258687,7.585137767657104,0.0,0.0,0.0,0.0,0.0,0.0,0.0,0.0,0.0,0.0,0.0,0.0,0.0,0.0,28.750882426546667,64.14748400611461,90.26186503002216,106.08208716499722,111.86090742201894,107.90600360316772,94.3612014265758,71.93136828300507,38.97252159684288,7.404293615744006,0.0,0.0,0.0,0.0,0.0,0.0,0.0,0.0,0.0,0.0,0.0,0.0,0.0,0.0,22.71900172876062,53.79961804522133,84.33830876551292,75.57920115934611,85.43975888538631,88.13057421955638,88.47405673627723,67.12746792547459,36.335716764418684,6.790455160508774,0.0,0.0,0.0,0.0,0.0,0.0,0.0,0.0,0.0,0.0,0.0,0.0,0.0,0.0,23.062180815696383,22.899542450888628,81.82803415347087,93.85568740461734,84.0494436101081,80.47352359283317,67.83172845666637,34.674438691055904,18.31229095991175,1.9504466585526787,0.0,0.0,0.0,0.0,0.0,0.0,0.0,0.0,0.0,0.0,0.0,0.0,0.0,0.0,23.477576191483347,54.73842980028698,14.447809217017085,19.034757278208875,42.60245211586368,49.35679913194686,40.435356590757394,26.204499670079013,13.905883620847964,1.6072675716169165,0.0,0.0,0.0,0.0,0.0,0.0,0.0,0.0,0.0,0.0,0.0,0.0,0.0,0.0,24.127522791144187,55.3886798297329,29.6899976113974,63.15435831951801,49.46542699500874,23.098288960121984,29.6177813225462,24.777772820590105,12.840238215615075,6.067988842211647,0.0,0.0,0.0,0.0,0.0,0.0,0.0,0.0,0.0,0.0,0.0,0.0,0.0,0.0,11.1789601422523,27.63122651956792,44.51679062999075,76.30166747764325,44.2819359763318,57.82673815292375,58.72974519334888,47.38814668628884,26.43935432373797,4.64126199272274,0.0,0.0,0.0,0.0,0.0,0.0,0.0,0.0,0.0,0.0,0.0,0.0,0.0,0.0,29.111963870802683,64.43665259130451,90.18964874117096,105.70279993363584,111.40940390180636,107.923905960488,95.31852239853188,74.20678824138817,44.04738475245794,10.853683412636796,0.0,0.0,0.0,0.0,0.0,0.0,0.0,0.0,0.0,0.0,0.0,0.0,0.0,0.0,26.89085784395054,61.07738144058318,85.71072168347088,103.93289399721117,110.28974799482762,107.83348388453145,95.55307362240572,72.34676365879203,43.01784749165064,10.691348477614133,0.0,0.0,0.0,0.0,0.0,0.0,0.0,0.0,0.0,0.0,0.0,0.0,0.0,0.0,26.31282410335582,60.39132669649676,85.0425692967047,78.45086064542929,87.08313460142884,79.19122932104668,71.46165897568716,57.01415318845516,33.82544215237663,8.18107386557208,0.0,0.0,0.0,0.0,0.0,0.0,0.0,0.0,0.0,0.0,0.0,0.0,0.0,0.0,10.96231127569869,25.969645016420053,47.063173386458416,59.99383367803004,68.73473549709149,63.08214203066681,37.31094009369502,30.37635578526893,17.138624551187142,2.799139767446867,0.0,0.0,0.0,0.0,0.0,0.0,0.0,0.0,0.0,0.0,0.0,0.0,0.0,0.0,5.779123686806832,15.51315119246488,72.05759507360213,89.82826386712985,103.75235327508317,102.92125909372412,91.94134889049027,71.78693570530267,41.84418108292604,10.583024044337328,0.0,0.0,0.0,0.0,0.0,0.0,0.0,0.0,0.0,0.0,0.0,0.0,0.0,0.0,23.92907971169592,55.605632126071605,78.43265485832394,66.33308874811132,77.96294555100603,101.51273803134058,61.34834423866774,28.02841610824954,15.693691914592888,2.835247911872469,0.0,0.0,0.0,0.0,0.0,0.0,0.0,0.0,0.0,0.0,0.0,0.0,0.0,0.0,24.741664676164504,59.50622201339186,86.86648573487523,105.86513486865849,109.892558406146,107.0752128515938,95.08366774487293,74.82093012640848,43.81253009879898,11.41351136612617,0.0,0.0,0.0,0.0,0.0,0.0,0.0,0.0,0.0,0.0,0.0,0.0,0.0,0.0,27.0170846345476,60.86073257402957,88.05835793070517,104.29397544146718,110.79556544657116,108.01432803644452,96.94369232746904,75.90447788896164,44.58900691884196,11.774896240167276,0.0,0.0,0.0,0.0,0.0,0.0,0.0,0.0,0.0,0.0,0.0,0.0,0.0,0.0,28.49812541556745,63.89472699513539,89.61161500057624,104.92601968380778,114.94921577465573,112.00533999972134,99.54438901546764,76.1390291128355,46.8465245199048,12.840238215615075,0.0,0.0,0.0,0.0,0.0,0.0,0.0,0.0,0.0,0.0,0.0,0.0,0.0,0.0,27.97440560650368,62.39578385679528,87.24577296623659,102.16298806078647,107.74336523835996,104.5106243080208,93.16932923074582,73.46641956577078,44.51679062999075,11.97364274940063,0.0,0.0,0.0,0.0,0.0,0.0,0.0,0.0,0.0,0.0,0.0,0.0,0.0,0.0,7.20585053629574,18.04163159161228,27.324155577057763,15.60357326842143,45.23925694828788,12.063761395572094,12.587481204635864,0.1805407221280093,0.0,0.0,0.0,0.0,0.0,0.0,0.0,0.0,0.0,0.0,0.0,0.0,0.0,0.0,0.0,0.0,6.646022582806366,19.52236894284704,55.17203096317929,58.92849170258224,111.24706896678371,108.84511878801848,51.433776010881694,44.62511506326756,25.951742659099803,5.760917899701488,0.0,0.0,0.0,0.0,0.0,0.0,0.0,0.0,0.0,0.0,0.0,0.0,0.0,0.0,7.5129214788059,19.48626079842144,22.64678543990941,56.36390315900923,118.92232538061228,116.91756479052866,104.34828937299814,82.36995974963999,49.69997821888262,14.086424342975974,0.0,0.0,0.0,0.0,0.0,0.0,0.0,0.0,0.0,0.0,0.0,0.0,0.0,0.0,29.798322044674208,65.61031900002912,91.43553143874676,106.91257448678604,113.35985056035906,110.61502472444312,99.07467970814974,78.54097929160073,49.1941607671391,14.411397642806389,0.0,0.0,0.0,0.0,0.0,0.0,0.0,0.0,0.0,0.0,0.0,0.0,0.0,0.0,28.389800982290648,62.70285479930545,87.22756717913124,102.2352043496377,108.3936152678059,105.43183713555126,94.66827236908595,75.54309301492052,47.22581175126616,13.92378597816822,0.0,0.0,0.0,0.0,0.0,0.0,0.0,0.0,0.0,0.0,0.0,0.0,0.0,0.0,18.83601076897552,43.1804858564584,49.77219450773382,73.88181494155775,82.71283540679066,79.26344560989787,72.16591950687894,53.07715172692421,32.507343165949614,9.28252398544548,0.0,0.0,0.0,0.0,0.0,0.0,0.0,0.0,0.0,0.0,0.0,0.0,0.0,0.0,22.393724999145117,52.31857726420148,50.69340733526431,94.16275834712752,99.3456425062343,72.07580086070747,10.004990303742606,70.07104027062385,41.39267756271347,11.648366019785126,0.0,0.0,0.0,0.0,0.0,0.0,0.0,0.0,0.0,0.0,0.0,0.0,0.0,0.0,6.338951640296205,10.20373681297596,15.386620972082731,23.78434370420842,18.78200026722966,13.03898472484843,13.21952544697644,5.128873657360909,2.636804832424203,0.0543139315309473,0.0,0.0,0.0,0.0,0.0,0.0,0.0,0.0,0.0,0.0,0.0,0.0,0.0,0.0,29.83443018909981,65.01438290211414,90.51462204100136,106.28053024444549,112.70960053091314,110.19962934865616,99.7070273802754,80.1303445058974,49.32069098752126,15.621475625741686,0.0,0.0,0.0,0.0,0.0,0.0,0.0,0.0,0.0,0.0,0.0,0.0,0.0,0.0,28.335487050759703,62.64854086777449,87.66116834202357,102.68670786985028,108.97134557861553,106.73203376465804,96.1132050056802,61.6915233256035,41.04949847577771,15.51315119246488,0.0,0.0,0.0,0.0,0.0,0.0,0.0,0.0,0.0,0.0,0.0,0.0,0.0,0.0,8.849226252338259,27.14361485492975,46.21448027756422,46.7743082310536,60.17437440015805,56.83330903654206,51.307245790499536,36.91375050501341,22.64678543990941,6.501590005103958,0.0,0.0,0.0,0.0,0.0,0.0,0.0,0.0,0.0,0.0,0.0,0.0,0.0,0.0,29.816224401994468,65.53810271117791,92.880464075341,108.80901064359286,115.52724951525045,113.5224889251668,101.96424155155314,82.1891155977269,51.180715570117385,17.084310619656193,0.0,0.0,0.0,0.0,0.0,0.0,0.0,0.0,0.0,0.0,0.0,0.0,0.0,0.0,29.92485226505636,63.80460834896393,88.51016488070285,103.71624513065754,109.91046076346623,108.21307454567788,97.9911319455966,79.31775954142881,51.162813212797126,17.40928391948661,0.0,0.0,0.0,0.0,0.0,0.0,0.0,0.0,0.0,0.0,0.0,0.0,0.0,0.0,29.707899968717665,25.7708985071867,60.4456406280277,75.1097952818133,85.71072168347088,83.95902153415156,72.3285578716867,20.714241138676996,14.971529026080852,9.878460083360457,0.0,0.0,0.0,0.0,0.0,0.0,0.0,0.0,0.0,0.0,0.0,0.0,0.0,0.0,0.0,22.953856382419577,61.89026983483687,86.79426944602402,113.08919119205956,112.99876911610302,103.53540097874446,84.1938761878105,53.131162228670064,18.691578191273116,0.0,0.0,0.0,0.0,0.0,0.0,0.0,0.0,0.0,0.0,0.0,0.0,0.0,0.0,21.454913244079467,57.21259626790344,85.58419146308873,114.31717153231514,96.60051324053327,108.59236177703924,106.60580697406095,82.80325748274721,32.001525714206096,15.567465123995827,0.0,0.0,0.0,0.0,0.0,0.0,0.0,0.0,0.0,0.0,0.0,0.0,0.0,0.0,15.78411399054944,20.94909579233595,15.78411399054944,23.78434370420842,15.748005846123837,65.7550550075166,59.88550924475324,43.46935101186321,15.097755816677914,2.07697687893483,0.0,0.0,0.0,0.0,0.0,0.0,0.0,0.0,0.0,0.0,0.0,0.0,0.0,0.0,1.1739698385096942,7.585137767657104,11.865014886338736,42.45801953816128,51.10849928126618,23.80254949131376,34.47569218182255,15.025539527826712,9.120189050422816,17.174732695612743,0.0,0.0,0.0,0.0,0.0,0.0,0.0,0.0,0.0,0.0,0.0,0.0,0.0,0.0,7.476813334380298,7.1154284603391895,27.59511837514232,54.05237505620054,49.57344799850047,62.01649662543392,67.7777179549205,81.7379155072994,52.84229707326525,18.96254098935767,0.0,0.0,0.0,0.0,0.0,0.0,0.0,0.0,0.0,0.0,0.0,0.0,0.0,0.0,5.995772553360444,15.224286037060066,28.47991962846211,106.06388137789186,39.80331234841682,39.586663481863205,44.93218600577772,33.80753979505638,0.8307907515739319,17.626236215825312,0.0,0.0,0.0,0.0,0.0,0.0,0.0,0.0,0.0,0.0,0.0,0.0,0.0,0.0,9.58959492795564,42.62065790296903,92.12188961261828,109.96477469499722,116.08707746873982,115.52694608546535,104.98033361533872,85.45796467249167,55.3164635408817,20.8586737163794,0.0,0.0,0.0,0.0,0.0,0.0,0.0,0.0,0.0,0.0,0.0,0.0,0.0,3.0522002082111688,35.16205035569408,70.17966813368575,96.14931315010578,111.37329575738076,117.7483555421026,115.29239486159146,104.81769525053096,85.67461353904528,57.21259626790344,21.92431912161229,0.0,0.0,0.0,0.0,0.0,0.0,0.0,0.0,0.0,0.0,0.0,0.0,0.0,3.106210709957028,33.89796187101292,67.632981947433,92.03146753666174,106.91257448678604,113.28763427150788,111.57204226661412,104.92601968380778,83.14613313989788,55.20813910760489,21.25616673484611,0.0,0.0,0.0,0.0,0.0,0.0,0.0,0.0,0.0,0.0,0.0,0.0,0.0,3.918795674425614,35.6314562332269,70.197570491006,97.7204725772971,109.54937931921025,115.5451518725707,97.0702225478512,92.04967332376708,70.55865193526202,55.71365312956332,12.027653251146493,0.0,0.0,0.0,0.0,0.0,0.0,0.0,0.0,0.0,0.0,0.0,0.0,0.0,0.0722162888512037,19.793331740931603,45.31147323713909,64.03946300262288,72.90659161228142,86.05390077040664,91.07444999449072,60.57186741862475,53.27559480637248,37.76244361390759,12.804130071189473,0.0,0.0,0.0,0.0,0.0,0.0,0.0,0.0,0.0,0.0,0.0,0.0,0.0,0.8668988959995338,31.893201280929294,63.94904092666634,89.61161500057624,105.25129641342328,111.75258298874212,110.0369909838484,100.33907162261598,81.10556783517374,51.90318188841451,20.06429453901616,0.0,0.0,0.0,0.0,0.0,0.0,0.0,0.0,0.0,0.0,0.0,0.0,0.0,0.0,4.749586425999546,6.736141228977826,21.36449116812292,29.88874412063076,31.87529892360904,38.59323436548152,24.57902631135675,21.328383023697317,22.70079594165528,8.433830876551292,0.0,0.0,0.0,0.0,0.0,0.0,0.0,0.0,0.0,0.0,0.0,0.0,0.0,0.0,0.5237198090637715,23.29673203957025,41.44668806445933,53.65518546751892,81.14167597959934,92.71782571053326,72.54520673824031,89.73814522095839,33.86185372658732,11.594355518039269,0.0,0.0,0.0,0.0,0.0,0.0,0.0,0.0,0.0,0.0,0.0,0.0,0.0,3.810471241148808,11.828906741913135,25.500239138887235,44.95039179288307,62.21524313466727,120.33084644299583,116.17719611491128,105.84723251133823,86.99271252547229,58.69363704892328,23.67601927093161,0.0,0.0,0.0,0.0,0.0,0.0,0.0,0.0,0.0,0.0,0.0,0.0,0.0,4.876116646381697,36.173381829396014,69.96271583734705,94.18066070444776,108.97134557861553,114.22674945635858,111.96923185529576,102.39784271444546,84.12135646917423,56.83361246632715,23.043975028591035,0.0,0.0,0.0,0.0,0.0,0.0,0.0,0.0,0.0,0.0,0.0,0.0,0.0,4.442515483489386,13.76145104314556,57.57398114194454,69.58342860598569,107.61713844776293,113.2697319141876,111.26497132410395,101.58525774997688,83.38098779355684,56.41821709054019,21.90611333450694,0.0,0.0,0.0,0.0,0.0,0.0,0.0,0.0,0.0,0.0,0.0,0.0,0.0,1.9683490158729355,7.314174969572544,35.992841107268006,33.86185372658732,46.75610244394826,64.1838955803253,52.33678305130682,66.76608305143347,32.904532754631234,10.25774731472182,0.0182057871053454,0.0,0.0,0.0,0.0,0.0,0.0,0.0,0.0,0.0,0.0,0.0,0.0,0.0,0.0,0.9391151848507376,0.4694058775328242,5.6525934664246815,36.66099349403419,25.44592520735629,58.71184283602863,63.696283915687125,42.16915438275646,4.623359635402484,21.67156211063308,0.0,0.0,0.0,0.0,0.0,0.0,0.0,0.0,0.0,0.0,0.0,0.0,0.0,6.519492362424215,40.85075196654436,77.33120473845054,103.5897149102754,119.95155921163447,125.92942940767465,119.1031695325254,108.82691300091312,89.61161500057624,61.51098260347549,26.005753160845657,0.0,0.0,0.0,0.0,0.0,0.0,0.0,0.0,0.0,0.0,0.0,0.0,0.0,6.898779593785579,40.05606935939603,73.64696028789879,97.63005050134058,112.18618415163444,118.0011125530818,115.5451518725707,105.41363134844592,87.04702645700324,59.57843830224307,25.084843763100267,0.0,0.0,0.0,0.0,0.0,0.0,0.0,0.0,0.0,0.0,0.0,0.0,0.0,4.587251490976882,36.26350047556748,56.8879263978581,78.57708743602635,95.31852239853188,95.37253290027772,95.40894447448842,57.19469391058317,40.07427514650138,54.93717630952033,24.073512289398323,0.0,0.0,0.0,0.0,0.0,0.0,0.0,0.0,0.0,0.0,0.0,0.0,0.0,2.618599045318858,22.30360635297365,50.11537359466959,59.83149874300737,72.90659161228142,71.15489146296208,87.80560091972598,65.26744334287844,32.95884668616218,10.312061246252767,10.221639170296216,0.0,0.0,0.0,0.0,0.0,0.0,0.0,0.0,0.0,0.0,0.0,0.0,0.0,5.598582964678823,27.450685797439917,36.985966793864606,61.27612794981654,85.09657979845056,83.92291338972596,77.22257687538864,66.85650512739002,64.65330145785812,37.52789239003372,8.70479367463585,0.0,0.0,0.0,0.0,0.0,0.0,0.0,0.0,0.0,0.0,0.0,0.0,0.0,2.9796804895748763,16.524482666166822,43.55977308781976,44.95039179288307,56.25557872573243,68.46407612879202,79.49830026355684,70.17936470390066,62.16123263292142,45.07661858348013,13.996305696804512,0.0,0.0,0.0,0.0,0.0,0.0,0.0,0.0,0.0,0.0,0.0,0.0,0.0,8.054543645189929,40.70631938884195,72.99671025845286,96.1132050056802,109.15218973052863,118.1458485605693,114.67855640635624,103.17431953448845,83.20044707142883,54.43166228756191,23.63991112650601,0.0,0.0,0.0,0.0,0.0,0.0,0.0,0.0,0.0,0.0,0.0,0.0,0.0,8.813118107912656,43.61378358956562,78.6675095119829,103.96900214163676,119.44604518967606,125.4057095986109,122.9494454883147,100.82668328725414,92.57339313283084,58.76585333777449,28.20895683037755,0.0,0.0,0.0,0.0,0.0,0.0,0.0,0.0,0.0,0.0,0.0,0.0,0.0,8.5782634542537,39.87552863726802,68.04837732321998,104.14954286376476,118.0011125530818,123.02196520695098,119.50005569142192,106.58760118695562,82.911581916024,55.20813910760489,23.73033320246256,0.0,0.0,0.0,0.0,0.0,0.0,0.0,0.0,0.0,0.0,0.0,0.0,0.0,9.119885620637728,4.081434039233367,79.73315491721578,34.92719570203512,42.76509048067143,58.982805634113184,126.16428406133362,112.58337374031606,92.880464075341,62.37788149947503,28.100632397100743,0.0,0.0,0.0,0.0,0.0,0.0,0.0,0.0,0.0,0.0,0.0,0.0,0.0,10.095412379699155,44.91428364845746,78.05336762696258,101.20597051861552,115.29239486159146,120.8545662520596,118.88621723618668,108.06864196797548,90.0631185207888,62.54021643449769,28.20895683037755,0.0,0.0,0.0,0.0,0.0,0.0,0.0,0.0,0.0,0.0,0.0,0.0,0.0,10.709250834934387,47.47856876224539,82.08079116445008,107.38228379410396,122.51614775520748,128.3313795864399,125.38750381150554,114.371182034061,91.81481867010812,64.27401422649676,29.43724060041819,1.498943138340111,0.0,0.0,0.0,0.0,0.0,0.0,0.0,0.0,0.0,0.0,0.0,0.0,10.835781055316538,46.32280471084103,80.49142595015343,104.13164050644453,117.73045318478232,118.47082186039972,116.03276353720888,105.41363134844592,86.28875542406558,60.22868833168899,27.125409067824407,1.0295372608072866,0.0,0.0,0.0,0.0,0.0,0.0,0.0,0.0,0.0,0.0,0.0,0.0,10.655240333188528,41.64543457369268,78.86625602121624,102.95767066793482,116.59259149069824,121.2159511261007,119.59047776737847,103.62582305470102,85.29532630768391,59.03681613585905,26.47546246816357,0.9209093977453922,0.0,0.0,0.0,0.0,0.0,0.0,0.0,0.0,0.0,0.0,0.0,0.0,11.1789601422523,45.74477097024631,78.45086064542929,102.45185321619132,116.46606127031608,122.6426779755896,120.54779873933454,110.0369909838484,91.57996401644915,61.87206404773151,28.20895683037755,1.6254733587222618,0.0,0.0,0.0,0.0,0.0,0.0,0.0,0.0,0.0,0.0,0.0,0.0,10.16762866855036,39.31570068377864,78.43265485832394,91.25499071661876,115.20197278563494,119.6086835544838,116.755229855506,106.13609766674308,86.84858337755499,44.480682485565154,27.14361485492975,1.3724129179579598,0.0,0.0,0.0,0.0,0.0,0.0,0.0,0.0,0.0,0.0,0.0,0.0,11.377403221700568,44.498888272670506,60.301208050325286,69.80038090232439,74.1527777396423,108.64637227878512,117.42338224227215,72.45508809206883,85.71072168347088,58.15171145275416,26.83654391241959,1.2279803402555522,0.0,0.0,0.0,0.0,0.0,0.0,0.0,0.0,0.0,0.0,0.0,0.0,9.697919361232444,34.80066548165297,67.10926213836923,99.8153518135522,114.4433983229122,91.2367849295134,99.76103788202126,86.21653913521439,78.36043856947273,56.88762296807302,27.21583114378096,1.5350512827657128,0.0,0.0,0.0,0.0,0.0,0.0,0.0,0.0,0.0,0.0,0.0,0.0,8.48814480808224,30.303836066632638,30.39425814258918,17.28305712888955,46.53945357739464,63.118250175092406,117.3690683107412,106.84035819793482,88.7447161045767,61.92637797926246,27.84787538612153,2.004760590083626,0.0,0.0,0.0,0.0,0.0,0.0,0.0,0.0,0.0,0.0,0.0,0.0,13.129406800804984,47.6591094843734,79.55231076530269,77.13245822921718,116.10497982606006,120.36695458742145,118.54303814925092,108.51984205840296,90.37018946329896,63.42532111760257,28.985737080205624,2.3658420343396447,0.0,0.0,0.0,0.0,0.0,0.0,0.0,0.0,0.0,0.0,0.0,0.0,13.707137111614609,47.55078505109659,77.96324898079112,99.36384829333964,115.25628671716588,120.65612317261136,117.44128459959242,93.25975130670236,89.23232776921488,60.824624429603965,28.913520791354426,2.3476362472342998,0.0,0.0,0.0,0.0,0.0,0.0,0.0,0.0,0.0,0.0,0.0,0.0,13.5265963894866,46.66598379777679,68.22891804534797,73.899717298878,94.75869444504248,105.63058364478464,94.433417715427,91.83302445721348,78.36043856947273,38.50311571931006,18.457026967399244,0.9209093977453922,0.0,0.0,0.0,0.0,0.0,0.0,0.0,0.0,0.0,0.0,0.0,0.0,1.878230369701475,7.837894778636317,12.388734695402508,23.3510459711012,12.51526491578466,8.307300656169142,28.49812541556745,39.4783390485864,2.997886276680222,22.339714497399253,10.60092640165758,0.0182057871053454,0.0,0.0,0.0,0.0,0.0,0.0,0.0,0.0,0.0,0.0,0.0,0.0,7.476813334380298,23.26062389514465,37.22082144752356,34.873185200289264,52.192350473604414,42.45801953816128,39.92953913901388,43.59588123224537,42.00651601794871,12.966768435997226,5.995772553360444,0.0,0.0,0.0,0.0,0.0,0.0,0.0,0.0,0.0,0.0,0.0,0.0,0.0,2.2214094566372373,9.409054205827632,35.12594221126847,50.87394805739231,85.87336004827864,117.8566799753794,95.17408982082948,92.50087341419456,86.5054042906192,37.76244361390759,18.131750237783734,1.083547762553145,0.0,0.0,0.0,0.0,0.0,0.0,0.0,0.0,0.0,0.0,0.0,0.0,16.055076788634,17.42748970659196,53.528655247136776,84.91603907632255,120.65612317261136,125.60445610784424,124.28605369163212,114.75046926542235,95.95056664087248,35.216060857439935,17.770668793527722,1.4628349939145089,0.0,0.0,0.0,0.0,0.0,0.0,0.0,0.0,0.0,0.0,0.0,0.0,19.14308171148568,57.9532683733059,91.79691631278789,115.90623331682671,129.19827848243943,133.73091261210027,131.43759029639693,119.15718003427124,98.78581455274492,69.45720181538861,32.507343165949614,3.5398118728493397,0.0,0.0,0.0,0.0,0.0,0.0,0.0,0.0,0.0,0.0,0.0,0.0,18.908227057826725,55.87629149437107,87.2818811106622,108.7185885676363,120.6018092410804,123.9067664602708,122.9855536327403,110.86778173542234,91.45373722585212,64.49066309305037,31.33337332743992,3.377173508041586,0.0,0.0,0.0,0.0,0.0,0.0,0.0,0.0,0.0,0.0,0.0,0.0,18.673675833952856,54.30513206717976,84.50064370053559,109.69381189691266,122.5883640440587,67.75951216781516,125.56834796341865,113.93788430095375,95.19199217814972,65.44798406500645,32.073742003057305,4.0274235374875085,0.0,0.0,0.0,0.0,0.0,0.0,0.0,0.0,0.0,0.0,0.0,0.0,18.4027130358683,53.34811452500876,83.95902153415156,105.64848600210487,56.76109274769086,96.63662138495889,98.40652732138356,74.02624751926015,47.27982225301203,36.78722028463125,18.14995602488908,1.715592004893722,0.0,0.0,0.0,0.0,0.0,0.0,0.0,0.0,0.0,0.0,0.0,0.0,2.040868734509228,4.515035202125678,4.948332935232901,16.759337319825775,37.25692959194916,51.09059692394592,65.71864343330593,51.84917138666865,51.307245790499536,24.32626930037754,12.2081939732745,0.7764768200429847,0.0,0.0,0.0,0.0,0.0,0.0,0.0,0.0,0.0,0.0,0.0,0.0,0.7946826071483301,3.4132816524671883,12.786227713869218,19.84734224267746,20.55190620365433,21.96042726603789,15.097755816677914,17.048202475230596,14.682360440890948,8.018435500764326,3.702146807872003,0.0,0.0,0.0,0.0,0.0,0.0,0.0,0.0,0.0,0.0,0.0,0.0,0.0,0.3431790869357622,0.3249732998304168,5.724809755275885,9.643908859486588,17.10251640676154,12.280410262125702,14.664458083570691,8.813118107912656,17.98731766008133,14.899009307444558,7.20585053629574,0.1805407221280093,0.0,0.0,0.0,0.0,0.0,0.0,0.0,0.0,0.0,0.0,0.0,0.0,19.55847708727265,53.36601688232901,82.17121324040663,102.36173457001983,64.27401422649676,55.64143684071212,74.56786968564418,58.58531261564647,92.71782571053326,30.53869072029159,31.513914049567934,4.225866616935774,0.0,0.0,0.0,0.0,0.0,0.0,0.0,0.0,0.0,0.0,0.0,0.0,5.43594459987107,26.692111334717183,53.65488203773383,61.51098260347549,53.69099018215943,58.567106828541135,68.8430599303683,59.090826637604906,79.24554325257762,45.36578716867003,23.26062389514465,3.2327409303391788,0.0,0.0,0.0,0.0,0.0,0.0,0.0,0.0,0.0,0.0,0.0,0.0,21.67156211063308,56.580552025562845,77.38521524019639,90.71336855023472,106.0095674463609,110.93999802427356,106.5153848981044,96.9257899701488,79.11901303219547,46.59376750892559,23.73033320246256,3.467292154213046,0.0,0.0,0.0,0.0,0.0,0.0,0.0,0.0,0.0,0.0,0.0,0.0,20.967301579441298,48.59852809900921,61.366246595988,69.04180643960166,72.41897994764324,80.54543645189928,97.3229795588304,82.67672726236506,47.74953156032994,26.36683460510168,13.09329865637938,1.3906187050633054,0.0,0.0,0.0,0.0,0.0,0.0,0.0,0.0,0.0,0.0,0.0,0.0,10.348169390678368,25.17496240927173,39.83942049284242,106.966888418317,118.21806484942049,123.41915479563262,120.04198128759104,110.18142356155084,91.70649423683132,63.190466463943615,15.11596160378326,4.442515483489386,0.0,0.0,0.0,0.0,0.0,0.0,0.0,0.0,0.0,0.0,0.0,0.0,21.761680756804537,54.34124021160536,50.3681306056488,70.2697867798572,90.1714429540656,118.03752412729249,114.26316103056928,104.18565100819038,87.02912409968299,61.89026983483687,18.02342580450693,2.5824909008932555,0.0,0.0,0.0,0.0,0.0,0.0,0.0,0.0,0.0,0.0,0.0,0.0,3.702146807872003,18.79990262454992,32.83231646578003,35.77588881092931,52.69786449556284,76.0307046795587,83.32667386202588,80.88891896862013,91.70649423683132,43.14437771203279,14.032413841230117,1.8421222252758729,0.0,0.0,0.0,0.0,0.0,0.0,0.0,0.0,0.0,0.0,0.0,0.0,24.362377444803144,61.02337093883733,91.92314310338492,113.41416449189,125.83900733171812,130.6429076892486,127.21172367946114,115.90623331682671,96.90758418304344,69.04180643960166,34.367367748545746,5.128873657360909,0.0,0.0,0.0,0.0,0.0,0.0,0.0,0.0,0.0,0.0,0.0,0.252757010979213,24.88609725386691,59.34388707836921,89.16011148036368,107.00299656274258,119.42783940257073,124.0511990379732,125.27917937822876,110.09130491537935,91.68859187951108,65.37576777615524,33.30172234331286,5.30941437948892,0.0,0.0,0.0,0.0,0.0,0.0,0.0,0.0,0.0,0.0,0.0,0.9209093977453922,26.06006709237661,61.14959772943438,90.42419996504482,110.849575948317,122.0285360905693,125.4415143132514,122.44393146635628,112.25840044048566,94.4695258598526,67.7051982362842,34.78276312433271,5.6525934664246815,0.0,0.0,0.0,0.0,0.0,0.0,0.0,0.0,0.0,0.0,0.0,0.6681523867661789,22.484147075101664,43.39713472301201,65.50199456675232,73.64696028789879,91.61607216087478,78.68541186930314,103.28264396776524,56.05683221649908,58.60321497296674,64.00305142841219,31.369481471865523,5.110971300040654,0.0,0.0,0.0,0.0,0.0,0.0,0.0,0.0,0.0,0.0,0.0,0.0,20.804663214633543,32.1098501474829,29.870538333525413,33.01285718790804,52.426901697478286,68.37335062305038,40.74242753326755,38.1960447767999,39.24348439492744,24.362377444803144,7.386391258423749,3.0160920637855675,0.0,0.0,0.0,0.0,0.0,0.0,0.0,0.0,0.0,0.0,0.0,0.0,8.343408800594743,24.940411185397856,23.63991112650601,112.76391446244406,128.2591632975887,133.8756486195878,127.06698767197368,116.68301356665478,97.82879701057392,69.9448134800268,34.58401661509936,5.670799253530027,0.0,0.0,0.0,0.0,0.0,0.0,0.0,0.0,0.0,0.0,0.0,2.040868734509228,28.76878478386692,66.29667717390065,99.12899363968069,121.39649184822872,134.5258986490337,138.62523504558737,134.18271956209796,121.61314071478232,98.65958776214786,52.17414468649907,28.53423355999305,6.104096986637249,0.0,0.0,0.0,0.0,0.0,0.0,0.0,0.0,0.0,0.0,0.0,2.130987380680688,28.85920685982347,65.15881547981655,95.73391777431884,116.42995312589048,128.58413659741913,132.4850299145245,128.45760637703697,116.98978107937988,97.53962842538402,67.94005288994317,35.28827714629114,6.266735351445003,0.0,0.0,0.0,0.0,0.0,0.0,0.0,0.0,0.0,0.0,0.0,2.510274612042052,29.671791824292058,65.48409220943205,94.01802233964,113.46817499363586,124.43048626933454,127.7533458458452,123.74412809546304,112.98056332899768,95.08366774487293,68.31934012130453,35.342591077822085,6.104096986637249,0.0,0.0,0.0,0.0,0.0,0.0,0.0,0.0,0.0,0.0,0.0,2.6908153341700616,29.130169657908027,64.50886888015572,93.8013734730864,113.59470521401803,109.31452466555128,129.75810643592882,126.20039220575924,115.52724951525045,96.9257899701488,67.68729587896395,35.10773642416313,6.176313275488453,0.0,0.0,0.0,0.0,0.0,0.0,0.0,0.0,0.0,0.0,0.0,2.8534536989778143,28.20895683037755,62.197340777347016,63.73239206011273,57.19469391058317,64.34623051534797,28.93142314867467,90.26186503002216,112.61948188474167,92.89836643266128,65.91738994253927,33.10327926386459,6.284637708765258,0.0,0.0,0.0,0.0,0.0,0.0,0.0,0.0,0.0,0.0,0.0,2.763031623021265,27.378166078803616,39.4783390485864,70.54074957794177,109.07997344167744,93.8013734730864,125.45972010035676,121.5588267832514,111.71647484431652,94.2889851377246,68.21101568802773,34.80066548165297,6.375059784721809,0.0,0.0,0.0,0.0,0.0,0.0,0.0,0.0,0.0,0.0,0.0,3.214535143233833,27.865777743441782,59.93982317628418,71.38944268683595,86.83037759044963,38.1238284879487,82.06288880712984,103.80636377682902,86.95690781083178,50.60298525930776,32.83231646578003,15.35051282765713,5.869242332978293,0.0,0.0,0.0,0.0,0.0,0.0,0.0,0.0,0.0,0.0,0.0,2.6908153341700616,4.731684068679289,19.01685492088862,24.741664676164504,30.593004651822536,58.20602538428511,86.27054963696025,51.19892135722273,48.182829293437166,29.094061513482423,24.32626930037754,14.664458083570691,6.375059784721809,0.0,0.0,0.0,0.0,0.0,0.0,0.0,0.0,0.0,0.0,0.0,1.7337977919990677,9.950676372211658,63.89472699513539,67.9582586770485,80.87071318151479,85.81904611674767,80.94292947036598,91.092352351811,81.35832484615295,76.15723489994083,52.73397263998845,33.988080517184386,6.916681951105836,0.0,0.0,0.0,0.0,0.0,0.0,0.0,0.0,0.0,0.0,0.0,0.1805407221280093,1.67948386046812,6.826563304934377,10.528710112806378,10.90799734416774,17.40928391948661,21.491021388505068,50.11537359466959,44.15570918573474,33.46436070812061,21.65335632352773,6.194519062593798,0.0,0.0,0.0,0.0,0.0,0.0,0.0,0.0,0.0,0.0,0.0,0.0,4.370299194638181,31.94751521246024,66.83860277006976,93.09711294189462,111.44551204623195,122.40782332193066,125.85721311882344,122.20907681269732,112.42073537550831,94.3973095710014,68.62641106381469,36.37212833862937,7.043212171487987,0.0,0.0,0.0,0.0,0.0,0.0,0.0,0.0,0.0,0.0,0.0,4.749586425999546,31.96541756978049,64.81593982266588,91.2006767850878,109.6036932507412,99.8875681024034,124.89989214686736,120.15030572086782,110.23573749308176,92.12188961261828,20.696338781356737,35.83020274246025,7.332077326892802,0.0,0.0,0.0,0.0,0.0,0.0,0.0,0.0,0.0,0.0,0.0,4.876116646381697,33.031062975013384,68.87947150457899,98.13586795308407,118.38039978444316,130.06517737843896,133.3880369549496,114.2628576007842,90.46030810947042,99.79714602644684,71.38944268683595,30.900075594332694,7.350283113998147,0.0,0.0,0.0,0.0,0.0,0.0,0.0,0.0,0.0,0.0,0.0,5.128873657360909,33.30172234331286,68.78904942862245,97.79268886614832,117.9650044086562,129.84822508210027,133.33372302341866,129.88433322652588,118.63346022520749,99.47217272661644,71.87705435147411,22.899542450888628,7.494715691700555,0.0,0.0,0.0,0.0,0.0,0.0,0.0,0.0,0.0,0.0,0.0,5.345522523914521,33.42825256369501,66.36889346275186,96.00488057240338,115.72569259469869,127.12130160350462,130.40835646537474,126.7602201592486,115.36461115044268,65.19492362424216,68.13879939917652,36.02894925169361,8.018435500764326,0.0,0.0,0.0,0.0,0.0,0.0,0.0,0.0,0.0,0.0,0.0,5.634691109104425,33.64490143024862,66.58554232930547,93.07921058457435,111.2831771112093,121.64924885920792,124.57491884703694,108.5741559899339,111.62635619814507,93.4402920288304,68.35544826573013,37.18471330309796,8.198976222892336,0.0,0.0,0.0,0.0,0.0,0.0,0.0,0.0,0.0,0.0,0.0,5.760917899701488,34.38557353565109,67.32621443470792,96.09499921857488,115.11185413946347,125.82110497439784,129.63157621554666,126.14607827422826,87.95003349742838,97.55783421248935,70.57685772236736,37.13039937156701,8.036641287869672,0.0,0.0,0.0,0.0,0.0,0.0,0.0,0.0,0.0,0.0,0.0,3.0339944211058234,12.69580563791267,40.99518454424677,70.10714841504945,88.25710443993854,94.19886649155312,99.12899363968069,118.23596720674075,107.67114894950878,90.2075510984912,65.53810271117791,35.01761777799167,7.837894778636317,0.0,0.0,0.0,0.0,0.0,0.0,0.0,0.0,0.0,0.0,0.0,5.869242332978293,22.827326162037423,49.48332935232901,67.6690900918586,64.20179793764555,111.1026363890813,56.90582875517836,107.77947338278558,69.65594832462197,64.00305142841219,37.365254025225966,19.468358441101188,6.266735351445003,0.0,0.0,0.0,0.0,0.0,0.0,0.0,0.0,0.0,0.0,0.0,1.7517001493193238,11.269078788423762,53.69099018215943,39.69498791514001,77.36700945309104,89.954794087512,91.72470002393668,44.101395254203794,43.27060450262986,43.34312422126615,31.315167540334578,17.824679295273576,5.30941437948892,0.0,0.0,0.0,0.0,0.0,0.0,0.0,0.0,0.0,0.0,0.0,6.248529564339657,16.506580308846566,47.62330476973288,66.09823409445238,43.75821616726803,99.58049715989324,105.54016156882808,81.64719000155777,71.71471941645146,47.08137917356376,32.97674904348244,16.90376989752819,5.598582964678823,0.0,0.0,0.0,0.0,0.0,0.0,0.0,0.0,0.0,0.0,0.0,0.1805407221280093,16.81334782157164,3.9913153930619054,6.140205131062851,23.585900624760157,47.60479555284245,61.420560527518944,48.562116524798526,43.68599987841682,49.69997821888262,40.30882637037524,22.863434306463027,6.573806293955162,0.0,0.0,0.0,0.0,0.0,0.0,0.0,0.0,0.0,0.0,0.0,0.0,20.208727116718567,21.36449116812292,20.479689914803124,80.54573988168437,67.9582586770485,39.89373442437336,50.85574227028697,33.21160369714139,29.057953369056825,27.197625356675605,6.916681951105836,3.792568883828552,0.0,0.0,0.0,0.0,0.0,0.0,0.0,0.0,0.0,0.0,0.0,1.787808293744926,5.490258531402018,13.580910321017548,51.05448877952032,115.59946580410164,125.15295258763167,128.72856917512155,110.5607107929122,115.85222281508086,97.82879701057392,69.70995882636784,38.10562270084335,8.650479743104903,0.0,0.0,0.0,0.0,0.0,0.0,0.0,0.0,0.0,0.0,0.0,7.007104027062385,36.46224698480084,68.8791680747939,93.89179554904295,111.2831771112093,121.1616371945698,123.70801995103744,119.62658591180406,109.3506328099769,91.97745703491589,67.39843072355914,36.76931792731099,8.198976222892336,0.0,0.0,0.0,0.0,0.0,0.0,0.0,0.0,0.0,0.0,0.0,6.970995882636783,36.04685160901386,67.94005288994317,92.32063612185163,108.79080485648753,118.23596720674075,120.78234996320842,117.60392296440016,108.21307454567788,91.63427794798012,67.5607656585818,37.20261566041821,8.48814480808224,0.0,0.0,0.0,0.0,0.0,0.0,0.0,0.0,0.0,0.0,0.0,7.458607547274953,36.37212833862937,68.62641106381469,93.60262696385308,110.92179223716822,120.6018092410804,123.18460357175874,124.84588164512152,109.87435261904066,93.38597809729944,69.04180643960166,38.05161219909749,8.813118107912656,0.0,0.0,0.0,0.0,0.0,0.0,0.0,0.0,0.0,0.0,0.0,7.60304012497736,36.173381829396014,67.72340402338956,91.97745703491589,109.33273045265663,118.66926493984798,121.10762669282391,109.45895724325368,107.79767916989094,91.0562442073854,66.67596440526201,36.85974000326754,9.01186461714601,0.0,0.0,0.0,0.0,0.0,0.0,0.0,0.0,0.0,0.0,0.0,7.675256413828565,35.97463532016266,65.33965963172965,94.30688749504483,111.73468063142188,108.46583155665712,125.33349330975967,121.25205927052632,110.68724101329434,93.74736297134056,66.92872141624122,37.040280725395554,9.065875118891867,0.0,0.0,0.0,0.0,0.0,0.0,0.0,0.0,0.0,0.0,0.0,7.007104027062385,30.339944211058235,57.24870441232903,81.81013179615061,58.76585333777449,63.13615253241266,108.7185885676363,107.0752128515938,98.26209474368116,72.56341252534564,65.95349808696488,32.43512687709841,9.264621628125225,0.0,0.0,0.0,0.0,0.0,0.0,0.0,0.0,0.0,0.0,0.0,8.506047165402498,32.18206643633411,53.20337851752127,72.8704834678558,75.1097952818133,91.21888257219317,101.71148454057392,96.52829695168208,76.96981986440943,44.607212705947305,32.32649901403652,23.152299461867845,6.682130727231968,0.0,0.0,0.0,0.0,0.0,0.0,0.0,0.0,0.0,0.0,0.0,2.004760590083626,23.152299461867845,42.92772884547919,57.50146142330824,81.70150393308872,86.433188001768,96.85327025151248,114.42549596559196,103.60792069738076,87.44421604568485,63.93083513956099,35.03552013531193,9.68001700391219,0.0,0.0,0.0,0.0,0.0,0.0,0.0,0.0,0.0,0.0,0.0,6.429070286467666,20.208727116718567,42.00651601794871,60.319110407645546,55.98461592764787,57.9893765177315,86.63163108121627,82.73073776411091,93.6208327509584,75.54309301492052,64.86995032441173,36.08295975343947,10.023196090847952,0.0,0.0,0.0,0.0,0.0,0.0,0.0,0.0,0.0,0.0,0.0,8.70479367463585,35.93852717573706,67.28980286049725,92.53728498840526,86.37917750002215,116.15929375759104,118.41650792886875,114.66035061925088,104.60104638397736,45.90740933505406,65.73684922041127,36.29960861999308,9.914568227786058,0.0,0.0,0.0,0.0,0.0,0.0,0.0,0.0,0.0,0.0,0.0,8.451733233871549,35.613553875906646,66.3506876756465,54.53998672083872,93.27765366402264,119.66269405622968,122.62447218848428,114.58813433039968,89.57550685615062,70.39631700023936,53.05894593981886,28.73267663944132,7.530823836126156,0.0,0.0,0.0,0.0,0.0,0.0,0.0,0.0,0.0,0.0,0.0,5.183187588891858,1.3724129179579598,19.39583872246489,38.1960447767999,86.37887407023707,58.83806962662569,51.252931858968594,79.01068859891865,79.93159799666405,41.62722878658734,28.19105447305729,20.100402683441764,10.47469961106052,0.0,0.0,0.0,0.0,0.0,0.0,0.0,0.0,0.0,0.0,0.0,9.409054205827632,40.27271822594964,74.76661619487753,101.1337542297643,119.17508239159147,129.28839712861088,131.45579608350226,126.6157875815462,115.74389838180404,97.68436443287152,72.27454736994083,39.532349550332256,10.60092640165758,0.0,0.0,0.0,0.0,0.0,0.0,0.0,0.0,0.0,0.0,0.0,9.426956563147888,38.737666943183925,69.61953675041129,94.07233627117095,110.50639686138123,119.7170079877606,122.15506631095148,119.22939632312244,108.61026413435953,92.46506869955404,68.33754590840988,38.64754829701247,10.56481825723198,0.0,0.0,0.0,0.0,0.0,0.0,0.0,0.0,0.0,0.0,0.0,5.345522523914521,38.14173084526895,68.78904942862245,93.07890715478928,110.10920727269962,119.5364672656326,121.97422215903836,85.85515426117328,109.3506328099769,92.01356517934148,68.04837732321998,38.25005527854576,10.420385679529572,0.0,0.0,0.0,0.0,0.0,0.0,0.0,0.0,0.0,0.0,0.0,9.409054205827632,36.91375050501341,66.67596440526201,90.2078545282763,106.53328725542468,115.6173681614219,118.05542648461277,102.127183346146,106.56969882963536,21.942524908717637,34.5300061133535,37.943287765820685,11.142851997826698,0.0,0.0,0.0,0.0,0.0,0.0,0.0,0.0,0.0,0.0,0.0,9.842351938934852,30.17760927603557,65.93559572964462,89.17801383768392,105.12476619304113,114.22674945635858,101.25998102036137,77.09635008479158,29.83443018909981,80.32909101513076,52.11983075496812,37.41956795675692,11.35950086438031,0.0,0.0,0.0,0.0,0.0,0.0,0.0,0.0,0.0,0.0,0.0,9.752233292763394,36.26350047556748,65.71864343330593,89.16011148036368,105.54016156882808,114.82268555427356,64.00305142841219,115.96054724835766,104.74547896167977,88.83513818053325,65.73684922041127,32.001525714206096,11.088538066295753,0.0,0.0,0.0,0.0,0.0,0.0,0.0,0.0,0.0,0.0,0.0,9.625703072381242,36.985966793864606,68.15670175649679,92.7360314976386,109.72992004133825,119.44604518967606,122.15506631095148,119.15718003427124,109.13398394342327,92.19410590146948,66.33278531832624,38.10562270084335,11.1789601422523,0.0,0.0,0.0,0.0,0.0,0.0,0.0,0.0,0.0,0.0,0.0,9.734027505658048,36.57057141807764,65.77295736483687,91.79691631278789,109.56758510631558,119.17508239159147,121.7757790795901,118.2902811382717,108.19486875857255,88.60028352687429,65.48409220943205,37.76244361390759,11.269078788423762,0.0,0.0,0.0,0.0,0.0,0.0,0.0,0.0,0.0,0.0,0.0,6.067988842211647,35.36079686492743,59.93982317628418,80.3834049466617,104.76368474878512,105.61237785767928,96.65482717206422,106.62370933138124,90.33408131887336,80.63585852785583,58.62142076007208,37.16650751599261,11.41351136612617,0.0,0.0,0.0,0.0,0.0,0.0,0.0,0.0,0.0,0.0,0.0,9.968882159317005,30.917977951652954,64.72551774670933,87.31798925508778,102.90366016618896,111.55413990929388,114.5520261859741,111.59024805371946,61.58319889232669,71.71471941645146,64.02125721551755,31.09851867378097,11.90112303076434,0.0,0.0,0.0,0.0,0.0,0.0,0.0,0.0,0.0,0.0,0.0,10.239844957401562,35.541337587055445,63.60586183973057,86.27054963696025,102.27131249406332,111.39150154448612,114.4795064673378,111.15664689082716,101.45872752959473,74.87494062815433,59.3077789339436,28.407703339610904,10.763564766465334,0.0,0.0,0.0,0.0,0.0,0.0,0.0,0.0,0.0,0.0,0.0,8.79491232080731,36.24559811824722,56.86972061075275,74.17068009696256,93.11531872899997,80.25657129649446,83.6519505916414,89.08789519151247,79.29955375432347,78.54097929160073,57.88105208445469,22.59247150837847,11.070635708975496,0.0,0.0,0.0,0.0,0.0,0.0,0.0,0.0,0.0,0.0,0.0,8.415625089445946,34.63833054663031,56.11114614803003,76.48220819977125,93.29585945112798,101.00722400938214,108.82691300091312,101.62136589440247,93.00669086593808,89.86437201155545,67.18147842722044,39.13515996165064,11.106743853401095,0.0,0.0,0.0,0.0,0.0,0.0,0.0,0.0,0.0,0.0,0.0,9.246415841019878,28.35338940807996,56.183362436881225,76.12112675551523,88.6363916712999,96.72704346091544,104.02301264338264,97.44950977921258,96.09499921857488,78.93847231006745,52.06582025322226,34.764557337227366,11.305186932849365,0.0,0.0,0.0,0.0,0.0,0.0,0.0,0.0,0.0,0.0,0.0,9.264621628125225,34.92719570203512,50.3681306056488,74.45954525236738,84.13956225627956,72.4368823049635,38.48490993220472,69.96271583734705,87.78769856240571,70.59476007968762,55.20813910760489,34.547908470673754,11.467825297657114,0.0,0.0,0.0,0.0,0.0,0.0,0.0,0.0,0.0,0.0,0.0,9.571692570635385,34.04239444871533,60.15647204283779,75.52519065760026,92.80794435670472,96.79956317955173,104.92601968380778,94.52383979138354,83.7602750249182,67.00093770509243,52.84229707326525,33.68100957467422,4.569045703871537,0.0,0.0,0.0,0.0,0.0,0.0,0.0,0.0,0.0,0.0,0.0,8.740901819061452,36.48045277190618,65.06869683364508,87.71517884376942,103.3369578992962,112.20408650895472,114.76867505252773,111.78869113316772,102.5601776494681,87.5346381216414,65.71864343330593,38.539223863735664,12.370832338082252,0.0,0.0,0.0,0.0,0.0,0.0,0.0,0.0,0.0,0.0,0.0,8.975756472720409,36.26350047556748,64.12958164879436,86.70415079985257,102.3799403571252,111.06652824465569,54.14249370237201,61.7276314700291,76.62664077747367,86.55971822215017,64.20179793764555,37.81675754543853,11.48603108476246,0.0,0.0,0.0,0.0,0.0,0.0,0.0,0.0,0.0,0.0,0.0,10.51080775548612,19.829439885357203,62.720757156625695,84.86202857457668,100.50140655763865,84.8978332892172,79.22733746547226,49.55554564118021,11.97364274940063,40.29092401305498,44.33624990786275,31.29726518301432,11.72058230863633,0.0,0.0,0.0,0.0,0.0,0.0,0.0,0.0,0.0,0.0,0.0,9.661811216806845,37.20261566041821,67.07315399394363,90.71336855023472,107.20174307197595,116.62900306490891,119.42783940257073,100.06810882453142,107.9961222493392,91.43553143874676,68.80695178594269,40.56188681113954,12.51526491578466,0.0,0.0,0.0,0.0,0.0,0.0,0.0,0.0,0.0,0.0,0.0,10.113314737019412,35.920624818416805,63.65987234147644,85.80114375942743,101.36830545363816,110.19962934865616,113.2697319141876,110.7773596594658,101.9102310498073,86.99301595525738,47.7674339176502,32.579559454800815,12.966768435997226,0.0,0.0,0.0,0.0,0.0,0.0,0.0,0.0,0.0,0.0,0.0,9.878460083360457,36.390030695949626,41.230039197905725,87.17355667738539,56.670974101519406,112.637687671847,113.81135408057165,86.84858337755499,102.59628579389371,87.29978346798245,66.22446088504944,39.38791697262985,12.786227713869218,0.0,0.0,0.0,0.0,0.0,0.0,0.0,0.0,0.0,0.0,0.0,9.878460083360457,36.010743464588266,64.05736535994315,86.70415079985257,101.3500996665328,83.11002499547227,114.56992854329437,110.4162782152098,101.67537639614832,86.86648573487523,65.28534570019869,39.04473788569408,13.147309158125235,0.0,0.0,0.0,0.0,0.0,0.0,0.0,0.0,0.0,0.0,0.0,10.20373681297596,25.7708985071867,63.40711533049723,85.20490423172737,100.39338555414692,109.33273045265663,112.00533999972134,108.62816649167976,99.92367624682902,62.88339552143346,44.5711045615217,37.13039937156701,12.063761395572094,0.0,0.0,0.0,0.0,0.0,0.0,0.0,0.0,0.0,0.0,0.0,10.20373681297596,35.46912129820424,62.70285479930545,85.0786774411303,100.7723693557232,59.88550924475324,79.96770614108965,17.554019926974107,96.63692481474398,86.45109035908827,67.34411679202819,40.09217750382163,12.424842839828113,0.0,0.0,0.0,0.0,0.0,0.0,0.0,0.0,0.0,0.0,0.0,9.98678451663726,35.613553875906646,63.87682463781514,86.30665778138587,102.25341013674304,77.02413379594037,115.6173681614219,91.70649423683132,43.55977308781976,4.64126199272274,7.097526103018934,6.555600506849817,3.8465793855744095,0.0,0.0,0.0,0.0,0.0,0.0,0.0,0.0,0.0,0.0,0.0,9.987087946422353,35.64966202033225,63.08183860088172,85.69281932615061,101.62136589440247,95.37253290027772,49.57344799850047,74.17068009696256,103.1922218918087,87.04702645700324,65.86337944079341,33.988080517184386,13.83366733199676,0.0,0.0,0.0,0.0,0.0,0.0,0.0,0.0,0.0,0.0,0.0,5.688701610850284,34.873185200289264,61.98038848100832,68.46377269900694,100.64614256512613,70.73949608717511,44.5349964170961,67.25369471607164,85.89126240559888,56.86972061075275,15.567465123995827,0.9931256865965958,12.804130071189473,0.0,0.0,0.0,0.0,0.0,0.0,0.0,0.0,0.0,0.0,0.0,9.987087946422353,35.23426664454528,63.24478039547456,86.23444149253466,100.700153066872,79.08290488776986,56.41821709054019,83.34487964913123,87.08313460142884,87.11924274585445,63.89472699513539,16.93987804195379,7.69346220093391,0.0,0.0,0.0,0.0,0.0,0.0,0.0,0.0,0.0,0.0,0.0,9.968882159317005,35.342591077822085,62.99171995471026,85.60239725019407,101.51273803134058,74.09846380811136,25.7708985071867,98.78581455274492,89.50329056729943,65.3936701334755,7.747472702679768,13.580910321017548,9.824449581614598,0.0,0.0,0.0,0.0,0.0,0.0,0.0,0.0,0.0,0.0,0.0,6.1584109181681965,22.285400565868308,18.60145954510165,20.244835261144168,33.68100957467422,47.93007228245796,92.71782571053326,81.3404224888327,24.633340242887694,4.695575924253687,20.98520393676155,15.224286037060066,9.174199552168671,0.0,0.0,0.0,0.0,0.0,0.0,0.0,0.0,0.0,0.0,0.0,9.716125148337792,35.28827714629114,63.118250175092406,86.16222520368346,100.3751797670416,90.04491273368346,113.16140748091078,109.712017684018,100.7723693557232,86.23444149253466,66.91081905892096,40.363140301906185,13.237731234081783,0.126530220382151,0.0,0.0,0.0,0.0,0.0,0.0,0.0,0.0,0.0,0.0,8.542155309828097,35.28858057607623,64.20179793764555,87.7154822735545,104.72757660435953,83.45320408240805,104.47481959338027,80.07603057436646,94.18066070444776,84.26609247666171,67.8499342437717,39.96595071322457,14.646252296465349,0.126530220382151,0.0,0.0,0.0,0.0,0.0,0.0,0.0,0.0,0.0,0.0,7.946219211913122,35.05372592241727,62.52231407717744,78.83014787679065,100.4473960558928,96.96189811457438,92.89836643266128,103.89678585278556,71.46165897568716,74.62218361717512,66.89261327181562,40.6881136017366,13.21952544697644,0.1444325777024074,0.0,0.0,0.0,0.0,0.0,0.0,0.0,0.0,0.0,0.0,9.481270494678837,36.335716764418684,65.12270733539096,87.62506019759796,93.6208327509584,98.60527383061692,120.92678254091082,116.88145664610306,107.85199310142184,92.71782571053326,68.53598898785815,41.69944507543855,12.98497422310257,0.2709627980845585,0.0,0.0,0.0,0.0,0.0,0.0,0.0,0.0,0.0,0.0,8.307300656169142,29.34681852446164,52.91451336211645,76.80748492938676,90.3880918206192,98.3886249640633,103.93289399721117,110.77766308925088,101.53094381844592,87.19176246449074,66.42320739428278,40.417454233437134,13.400066169104448,0.1083244332768055,0.0,0.0,0.0,0.0,0.0,0.0,0.0,0.0,0.0,0.0,8.813118107912656,32.56135366769548,52.53522613075509,50.69310390547921,43.03605327875599,70.25188442253695,95.9684689981927,70.25188442253695,89.0335812599815,72.00358457185628,56.14725429245564,14.050316198550371,11.503933442082715,0.0,0.0,0.0,0.0,0.0,0.0,0.0,0.0,0.0,0.0,0.0,8.542155309828097,26.96307413280174,63.67807812858178,31.20684310705777,11.558247373613664,8.469939020976895,34.63833054663031,65.12270733539096,110.45238635963538,79.84147935049259,51.52389465705315,36.715003995780044,14.8449988056987,0.2888651554048149,0.0,0.0,0.0,0.0,0.0,0.0,0.0,0.0,0.0,0.0,0.0,8.126759934041132,32.54345131037522,49.91662708543623,90.0631185207888,104.63715452840296,119.87934292278328,99.79714602644684,88.04045557338493,48.327565300924654,60.048147609560985,31.134626818206566,13.346055667358591,0.1444325777024074,0.0,0.0,0.0,0.0,0.0,0.0,0.0,0.0,0.0,0.0,8.036641287869672,34.78276312433271,52.824394715945,85.16909951708685,100.519612344744,109.76602818576384,100.21284483201892,95.13798167640384,102.48796136061692,86.83037759044963,66.26056902947505,40.67021124441635,13.779353400465812,0.2709627980845585,0.0,0.0,0.0,0.0,0.0,0.0,0.0,0.0,0.0,0.0,9.336837916976428,34.43958403739695,62.32356756794408,84.93424486342789,101.22387287593575,111.30138289831466,114.29896574520978,67.30800864760258,104.6550568857232,88.5641753824487,64.23790608207116,41.42878570713908,13.797559187571158,0.4332977331072223,0.0,0.0,0.0,0.0,0.0,0.0,0.0,0.0,0.0,0.0,8.70479367463585,34.27694567258919,62.75716873083639,73.88181494155775,56.49043337939139,22.556363363952865,74.8455079390007,74.75963730982049,74.75872702046522,57.63557738831762,22.484147075101664,32.32649901403652,13.92378597816822,0.4332977331072223,0.0,0.0,0.0,0.0,0.0,0.0,0.0,0.0,0.0,0.0,9.047972761571613,33.80753979505638,61.92607454947736,71.23014204966418,73.27313479266903,65.41278620993613,51.58306346514552,18.167858382209342,13.273839378507388,40.90506589807531,52.7157668528831,29.02184522463122,9.788341437188995,0.0,0.0,0.0,0.0,0.0,0.0,0.0,0.0,0.0,0.0,0.0,7.765678489785112,33.86185372658732,62.179134990241664,72.11737074126468,73.93157742631236,24.03740414497272,21.52712953293067,20.569808560974582,38.25005527854576,49.69997821888262,53.04104358249861,40.38134608901153,13.905883620847964,0.0,0.0,0.0,0.0,0.0,0.0,0.0,0.0,0.0,0.0,0.0,5.52636667582762,31.02630238492976,59.43400572454066,85.1508937299815,71.91316249589973,31.20684310705777,83.77848081202356,86.63163108121627,68.53598898785815,70.34200306870841,34.02418866160999,40.97728218692651,7.819688991530971,0.0,0.0,0.0,0.0,0.0,0.0,0.0,0.0,0.0,0.0,0.0,9.697919361232444,19.468358441101188,49.97094101696718,66.40500160717745,3.7743630967232074,8.70479367463585,12.424842839828113,26.728219479142783,56.74319039037061,85.20520766151246,54.702321655861375,1.878230369701475,14.068521985655718,0.0,0.0,0.0,0.0,0.0,0.0,0.0,0.0,0.0,0.0,0.0,8.451733233871549,33.46436070812061,61.02337093883733,83.9408157470462,99.39995643776524,113.03487726052865,116.30372633529343,108.73679435474166,100.32086583551065,74.27900453023936,65.3214538446243,39.983853070544825,15.495248835144624,0.0,0.0,0.0,0.0,0.0,0.0,0.0,0.0,0.0,0.0,0.0,8.903236754084116,32.200272223439455,58.49489053968993,82.83936562717281,100.35697397993624,86.95660438104669,94.92133280985024,111.96923185529576,102.3796369273401,86.74025894427817,63.768500204538334,39.17126810607624,13.418271956209797,0.0,0.0,0.0,0.0,0.0,0.0,0.0,0.0,0.0,0.0,0.0,8.777009963487053,32.47123502152401,59.0547184931793,81.4126387776839,87.20966482181099,100.10421696895702,96.49218880725648,95.26420846700093,85.56628910576848,74.51385918389832,57.46565670866774,38.97252159684288,14.646252296465349,0.0,0.0,0.0,0.0,0.0,0.0,0.0,0.0,0.0,0.0,0.0,8.415625089445946,31.83888734939835,57.79063000849814,79.60662469683363,96.56440509610766,80.88891896862013,67.48854936973059,108.44762576955176,16.524482666166822,26.114077594122463,29.34681852446164,40.59799495556514,13.634920822763403,0.0,0.0,0.0,0.0,0.0,0.0,0.0,0.0,0.0,0.0,0.0,8.469939020976895,32.001525714206096,58.31434981756192,80.25687472627956,96.3298538722338,105.9376545872948,71.80483806262292,67.39843072355914,100.77267278550828,85.43975888538631,65.28534570019869,40.634103099990746,15.477043048039278,0.1083244332768055,0.0,0.0,0.0,0.0,0.0,0.0,0.0,0.0,0.0,0.0,7.982327356338724,32.507343165949614,59.99383367803004,82.94769006044962,99.30953436180867,108.73679435474166,101.22387287593575,95.7157119872135,58.71153940624353,76.1751372572611,60.66198606479622,38.2682610656511,15.152069748208865,0.1083244332768055,0.0,0.0,0.0,0.0,0.0,0.0,0.0,0.0,0.0,0.0,7.675256413828565,30.809653518376148,48.61643045632948,73.64696028789879,91.00223370563954,87.62506019759796,90.35198367619364,65.80906550926247,80.11244214857714,67.48854936973059,58.946394059902495,38.21394713412016,5.273306235063318,0.0,0.0,0.0,0.0,0.0,0.0,0.0,0.0,0.0,0.0,0.0,1.9504466585526787,10.348169390678368,29.02184522463122,33.60879328582302,68.6986273526659,95.82403642049027,89.41286849134288,88.9255602564898,80.85281082419453,62.07081055696486,43.14437771203279,32.904532754631234,12.659697493487068,0.0,0.0,0.0,0.0,0.0,0.0,0.0,0.0,0.0,0.0,0.0,7.910111067487521,20.208727116718567,31.29726518301432,54.17860184679761,82.27953767368345,82.92978770312936,77.43952917172733,96.60081667031837,95.40894447448842,71.42555083126156,56.76109274769086,29.34681852446164,10.420385679529572,0.0,0.0,0.0,0.0,0.0,0.0,0.0,0.0,0.0,0.0,0.0,6.754347016083172,30.881869807227357,56.77929853479621,79.01068859891865,72.14801714955868,83.85069710087477,36.46224698480084,103.68013698623196,92.03146753666174,66.83829934028466,17.120418764081798,7.549029623231502,0.0,0.0,0.0,0.0,0.0,0.0,0.0,0.0,0.0,0.0,0.0,0.0,7.855797135956574,30.917977951652954,56.83361246632715,79.69704677279017,97.2507632699792,59.84940110032763,97.79268886614832,98.74970640831933,62.95561181028466,78.64930372487756,51.27113764607393,34.25904331526895,9.842351938934852,0.0,0.0,0.0,0.0,0.0,0.0,0.0,0.0,0.0,0.0,0.0,7.386391258423749,31.35127568476017,59.1272382118156,72.63562881419685,84.26609247666171,88.97957075823565,72.6174230270915,68.9874925080707,85.85545769095837,87.1374485329598,58.96459984700785,38.44880178777911,15.043745314932057,0.1083244332768055,0.0,0.0,0.0,0.0,0.0,0.0,0.0,0.0,0.0,0.0,7.60304012497736,31.008400027609504,58.13380909543391,81.32221670172736,98.0272400900222,108.03253382354988,98.28030053078648,110.5968189373378,101.85591711827637,87.73338463087477,66.76638648121855,40.72422174616221,13.815461544891416,0.0,0.0,0.0,0.0,0.0,0.0,0.0,0.0,0.0,0.0,0.0,7.476813334380298,30.881869807227357,50.8017317685411,70.10714841504945,65.3214538446243,26.872652056845197,17.770668793527722,43.75821616726803,86.03569498330128,63.0460338862412,51.885279531094255,40.45356237786274,11.124646210721352,0.0,0.0,0.0,0.0,0.0,0.0,0.0,0.0,0.0,0.0,0.0,6.429070286467666,21.761680756804537,59.181248713561445,33.66310721735396,79.805371206067,79.33596532853416,18.673675833952856,27.161517212250004,51.8309655995633,50.31412010390294,40.14649143535258,22.375822641824858,4.370299194638181,0.0,0.0,0.0,0.0,0.0,0.0,0.0,0.0,0.0,0.0,0.0,3.304957219190382,23.007866884165438,8.343408800594743,22.393724999145117,26.872652056845197,50.98227249066912,53.25769244905221,59.1272382118156,62.48620593275184,63.17226067683826,7.946219211913122,19.99207825016496,12.443048626933455,0.0,0.0,0.0,0.0,0.0,0.0,0.0,0.0,0.0,0.0,0.0,2.4198525360855028,18.294388602591493,27.613020732462573,46.08795005718207,105.39572899112568,88.5641753824487,115.47293558371948,76.26555933321764,47.876061780712085,83.688058736067,68.04837732321998,41.24794155522598,14.375289498380788,0.0,0.0,0.0,0.0,0.0,0.0,0.0,0.0,0.0,0.0,0.0,6.050086484891391,31.60433612552448,61.60140467943205,88.6363916712999,106.62370933138124,46.8826326643304,97.3951958476816,114.64214483214556,105.39572899112568,91.11055813891636,69.40288788385767,31.47780590514233,13.183417302550838,0.0,0.0,0.0,0.0,0.0,0.0,0.0,0.0,0.0,0.0,0.0,6.573806293955162,31.09851867378097,59.65065459109427,83.30877150470565,99.8875681024034,109.892558406146,78.93847231006745,111.60815041103972,69.16803323019872,88.78082424900231,66.96482956066683,40.5797891684598,14.628349939145089,0.0,0.0,0.0,0.0,0.0,0.0,0.0,0.0,0.0,0.0,0.0,6.934887738211181,30.26772792220703,49.32069098752126,74.09846380811136,87.30008689776754,97.57573656980964,110.7051433706146,108.03253382354988,49.71788057620288,64.97827475768854,65.79116315194221,39.91163678169362,12.731913782338273,0.0,0.0,0.0,0.0,0.0,0.0,0.0,0.0,0.0,0.0,0.0,6.682130727231968,29.762213900248607,56.94193689960396,80.36519915955635,97.16064462380776,107.1477325702301,110.5968189373378,109.69381189691266,101.22387287593575,87.10134038853418,66.35099110543159,40.038167002075774,14.212954563358124,0.0,0.0,0.0,0.0,0.0,0.0,0.0,0.0,0.0,0.0,0.0,5.959664408934841,29.97886276680222,58.76585333777449,82.74894355121626,73.8636091544524,39.83942049284242,115.25628671716588,111.30107946852957,106.91257448678604,92.14009539972362,70.197570491006,41.42878570713908,13.237731234081783,0.0,0.0,0.0,0.0,0.0,0.0,0.0,0.0,0.0,0.0,0.0,5.363728311019867,29.85233254642007,54.81094951892327,57.303018343859975,26.71001369203744,68.15670175649679,98.04544587712752,88.79903003610765,73.44821377866543,73.06922997708917,49.69997821888262,33.60879328582302,13.111201013699636,0.0,0.0,0.0,0.0,0.0,0.0,0.0,0.0,0.0,0.0,0.0,5.002646866763848,24.41669137633409,50.5486713277768,75.85016395743068,83.7602750249182,97.73837493461735,113.3419482030388,94.95713752449078,87.44451947546996,80.85250739440944,66.26056902947505,34.6022224022047,12.4612544140388,0.0,0.0,0.0,0.0,0.0,0.0,0.0,0.0,0.0,0.0,0.0,5.183187588891858,29.744008113143263,59.25346500241265,83.16433892700323,100.04990303742608,109.96477469499722,79.24523982279253,14.357387141060531,49.60955614292608,84.91603907632255,70.03493212619826,36.28170626267282,12.804130071189473,0.0,0.0,0.0,0.0,0.0,0.0,0.0,0.0,0.0,0.0,0.0,5.797026044127089,23.549792480334556,48.81517696556282,64.0752677172634,88.09446607513078,55.74976127398892,46.05184191275647,65.23103176866776,72.34646022900695,61.60110124964696,40.9411740425009,18.49313511182485,7.494715691700555,0.0,0.0,0.0,0.0,0.0,0.0,0.0,0.0,0.0,0.0,0.0,2.8534536989778143,20.262737618464424,22.249292421442703,23.459370404378003,67.48854936973059,57.57398114194454,58.85627541373104,88.43764516206653,83.25476100295978,79.37177004317468,46.8104163754792,19.55847708727265,12.76802192676387,0.0,0.0,0.0,0.0,0.0,0.0,0.0,0.0,0.0,0.0,0.0,5.381630668340123,29.111963870802683,42.81910098241729,42.74688469356609,101.20597051861552,82.82115984006747,82.26133188657809,112.42073537550831,103.1922218918087,89.01567890266126,47.17149781973522,29.960960409481963,4.153650328084571,0.0,0.0,0.0,0.0,0.0,0.0,0.0,0.0,0.0,0.0,0.0,5.273306235063318,29.130169657908027,57.62799164369039,81.53886556828095,98.4969493973401,108.3210955491696,111.82479927759334,109.27871995091076,40.363140301906185,88.45585094917189,65.77295736483687,39.2974948966733,12.750119569443616,0.0,0.0,0.0,0.0,0.0,0.0,0.0,0.0,0.0,0.0,0.0,4.876116646381697,28.823098715397865,57.682305575221335,81.37653063325831,98.08155402155312,107.9961222493392,85.63850539461967,114.08231687865616,100.7723693557232,86.90259387930084,66.11613645177263,39.24348439492744,10.980213633018945,0.0,0.0,0.0,0.0,0.0,0.0,0.0,0.0,0.0,0.0,0.0,4.551143346551281,22.71900172876062,57.53787299751894,81.57497371270657,98.8222261269556,108.61026413435953,112.07755628857257,109.53147696189,101.00722400938214,64.3283281580277,65.55630849828326,38.358683141607656,12.551373060210262,0.0,0.0,0.0,0.0,0.0,0.0,0.0,0.0,0.0,0.0,0.0,2.7269234785956638,15.278296538805924,49.230572341349806,46.32280471084103,71.08267517411089,88.36542887321534,37.67232496773613,34.5661142577791,44.5349964170961,76.40999191092006,67.30800864760258,39.09905181722503,12.786227713869218,0.0,0.0,0.0,0.0,0.0,0.0,0.0,0.0,0.0,0.0,0.0,4.731684068679289,28.172848685951948,57.55577535483919,82.27953767368345,98.82192269717052,86.54151243504482,114.08231687865616,78.64930372487756,60.35521855207115,70.84782052045192,66.08002830734702,38.539223863735664,11.23297064399816,0.0,0.0,0.0,0.0,0.0,0.0,0.0,0.0,0.0,0.0,0.0,4.767792213104891,28.15494632863169,57.682305575221335,81.91815279964233,99.02066920640388,84.51884948764094,84.01303203589741,53.47434131560582,37.34735166790571,44.44457434113955,57.7363160769672,37.92508197871534,12.172085828848896,0.0,0.0,0.0,0.0,0.0,0.0,0.0,0.0,0.0,0.0,0.0,4.876116646381697,27.775659097270324,56.50833573671164,80.88891896862013,9
...