data/projects/4mgs/lehigh_VLN.Txt

SYMMETRICAL COMPONENT VOLTAGES BY BUS (for 3-phase buses)

Bus        Mag:   V1 (kV)    p.u.     V2 (kV)   %V2/V1    V0 (kV)    %V0/V1

sourcebus      66.4          1   7.213E-8   1.086E-7  4.319E-9  6.505E-9
680           2.402          1   1.174E-9   4.887E-8 1.562E-10  6.505E-9
650           2.402          1   4.062E-6  0.0001691  8.123E-6 0.0003382
rg60          2.337      0.973   0.004995     0.2137  0.004984    0.2132
633           2.541      1.058   0.002966     0.1167   0.01421    0.5593
634          0.2944      1.062   0.002759     0.9369  0.004211      1.43
684           2.718      1.132          0          0         0         0
645            2.53      1.053          0          0         0         0
646           2.536      1.056          0          0         0         0
692           2.653      1.104    0.02499     0.9422   0.03893     1.468
675           2.674      1.113    0.02667     0.9972   0.03975     1.487
611           2.716      1.131          0          0         0         0
652           2.707      1.127          0          0         0         0
670           2.599      1.082    0.01145     0.4406   0.01935    0.7444
671           2.653      1.104    0.02499     0.9422   0.03893     1.468
632           2.538      1.057   0.003778     0.1488   0.01165     0.459
